*Heading
** Job name: Job-inclusion Model name: Model-1
** Generated by: Abaqus/CAE 2021
*Preprint, echo=NO, model=NO, history=NO, contact=NO
**
** PARTS
**
*Part, name=Part-1
*Node
      1,   16.5880966,   24.9967022,           1.
      2,  -16.5880966,   24.9967022,           1.
      3,  -25.9828663,   14.9963541,           1.
      4,   25.9828663,   14.9963541,           1.
      5,   -16.575531,   25.0050354,           0.
      6,   -25.978056,   15.0046873,           0.
      7,    25.978056,   15.0046873,           0.
      8,    16.575531,   25.0050354,           0.
      9,   28.2856216,   9.99618053,           1.
     10,  -28.2856216,   9.99618053,           1.
     11,         -30., -0.00416666688,           1.
     12,          30., -0.00416666688,           1.
     13,  -28.2826748,   10.0045137,           0.
     14,         -30., 0.00416666688,           0.
     15,          30., 0.00416666688,           0.
     16,   28.2826748,   10.0045137,           0.
     17,   29.5810738,  -4.99600697,           0.
     18,  -29.5810738,  -4.99600697,           0.
     19,   29.5796642,  -5.00434017,           1.
     20,  -29.5796642,  -5.00434017,           1.
** ... 1398 like lines cut
*Element, type=C3D8R
 1,   8,  66, 397,  77,   1,  39, 381,  58
 2,  66,  65, 398, 397,  39,  40, 382, 381
 3,  65,  64, 399, 398,  40,  41, 383, 382
 4,  64,  63, 400, 399,  41,  42, 384, 383
 5,  63,  62, 401, 400,  42,  43, 385, 384
 6,  62,  61, 402, 401,  43,  44, 386, 385
 7,  61,  60, 403, 402,  44,  45, 387, 386
 8,  60,  59, 404, 403,  45,  46, 388, 387
 9,  59,   5,  68, 404,  46,   2,  47, 388
10,  77, 397, 405,  78,  58, 381, 389,  57
11, 397, 398, 406, 405, 381, 382, 390, 389
12, 398, 399, 407, 406, 382, 383, 391, 390
13, 399, 400, 408, 407, 383, 384, 392, 391
14, 400, 401, 409, 408, 384, 385, 393, 392
15, 401, 402, 410, 409, 385, 386, 394, 393
16, 402, 403, 411, 410, 386, 387, 395, 394
17, 403, 404, 412, 411, 387, 388, 396, 395
18, 404,  68,  67, 412, 388,  47,  48, 396
19,  78, 405,  69,   7,  57, 389,  56,   4
20, 405, 406,  70,  69, 389, 390,  55,  56
** ... 640 like lines cut
*Nset, nset=Set-FCC
   1,   2,   3,   4,   5,   6,   7,   8,   9,  10,  11,  12,  13,  14,  15,  16
  17,  18,  19,  20,  21,  22,  23,  24,  25,  26,  27,  28,  29,  30,  39,  40
  41,  42,  43,  44,  45,  46,  47,  48,  49,  50,  51,  52,  53,  54,  55,  56
  57,  58,  59,  60,  61,  62,  63,  64,  65,  66,  67,  68,  69,  70,  71,  72
  73,  74,  75,  76,  77,  78,  79,  80,  81,  82,  83,  84,  85,  86,  87,  88
  89,  90,  91,  92,  93,  94,  95,  96,  97,  98,  99, 100, 101, 102, 103, 104
 105, 106, 107, 108, 109, 110, 111, 112, 113, 114, 115, 116, 117, 118, 119, 120
 121, 122, 123, 124, 125, 126, 127, 128, 129, 130, 131, 132, 133, 134, 135, 136
 137, 138, 139, 140, 141, 142, 143, 144, 145, 146, 147, 148, 149, 150, 151, 152
 153, 154, 155, 156, 157, 158, 159, 160, 161, 162, 163, 164, 165, 166, 179, 180
 181, 182, 183, 184, 185, 186, 187, 188, 189, 190, 191, 192, 193, 194, 195, 196
 381, 382, 383, 384, 385, 386, 387, 388, 389, 390, 391, 392, 393, 394, 395, 396
 397, 398, 399, 400, 401, 402, 403, 404, 405, 406, 407, 408, 409, 410, 411, 412
 413, 414, 415, 416, 417, 418, 419, 420, 421, 422, 423, 424, 425, 426, 427, 428
 429, 430, 431, 432, 433, 434, 435, 436, 437, 438, 439, 440, 441, 442, 443, 444
 461, 462, 463, 464, 465, 466, 467, 468, 469, 470, 471, 472, 473, 474, 475, 476
 477, 478, 479, 480, 481, 482, 483, 484, 485, 486, 487, 488, 489, 490, 491, 492
 493, 494, 495, 496, 497, 498
*Elset, elset=Set-FCC
   1,   2,   3,   4,   5,   6,   7,   8,   9,  10,  11,  12,  13,  14,  15,  16
  17,  18,  19,  20,  21,  22,  23,  24,  25,  26,  27,  28,  29,  30,  31,  32
  33,  34,  35,  36,  37,  38,  39,  40,  41,  42,  43,  44,  45,  64,  65,  66
  67,  68,  69,  70,  71,  72,  73,  74,  75,  76,  77,  78,  79,  80,  81, 106
 107, 108, 109, 110, 111, 112, 113, 114, 115, 116, 117, 118, 119, 120, 121, 122
 123, 124, 125, 126, 127, 128, 129, 130, 131, 132, 133
*Nset, nset=Set-BCC
   1,   2,   3,   4,   5,   6,   7,   8,   9,  10,  11,  12,  13,  14,  15,  16
  17,  18,  19,  20,  21,  22,  23,  24,  25,  26,  27,  28,  39,  40,  41,  42
  43,  44,  45,  46,  49,  50,  51,  52,  53,  54,  55,  56,  59,  60,  61,  62
  63,  64,  65,  66,  69,  70,  71,  72,  73,  74,  75,  76,  79,  80,  81,  82
  83,  84,  85,  86,  88,  89,  90,  91,  92,  93,  94,  95,  97,  98,  99, 100
 101, 102, 103, 104, 106, 107, 108, 109, 110, 111, 112, 113, 115, 116, 117, 118
 119, 120, 121, 122, 123, 124, 125, 126, 127, 128, 129, 130, 132, 133, 134, 135
 136, 137, 138, 139, 142, 143, 144, 145, 146, 147, 148, 149, 151, 152, 153, 154
 155, 156, 157, 158, 159, 160, 161, 162, 163, 164, 165, 166, 167, 168, 169, 170
 171, 172, 173, 174, 175, 176, 177, 178, 445, 446, 447, 448, 449, 450, 451, 452
 453, 454, 455, 456, 457, 458, 459, 460
*Elset, elset=Set-BCC
  46,  47,  48,  49,  50,  51,  52,  53,  54,  55,  56,  57,  58,  59,  60,  61
  62,  63,  82,  83,  84,  85,  86,  87,  88,  89,  90,  91,  92,  93,  94,  95
  96,  97,  98,  99, 100, 101, 102, 103, 104, 105
*Nset, nset=Set-Matrix
    1,    2,    3,    4,    5,    6,    7,    8,    9,   10,   11,   12,   13,   14,   15,   16
   17,   18,   19,   20,   21,   22,   23,   24,   25,   26,   27,   28,   29,   30,   31,   32
   33,   34,   35,   36,   37,   38,   47,   48,   57,   58,   67,   68,   77,   78,   87,   96
  105,  114,  131,  140,  141,  150,  167,  168,  169,  170,  171,  172,  173,  174,  175,  176
  177,  178,  179,  180,  181,  182,  183,  184,  185,  186,  187,  188,  189,  190,  191,  192
  193,  194,  195,  196,  197,  198,  199,  200,  201,  202,  203,  204,  205,  206,  207,  208
  209,  210,  211,  212,  213,  214,  215,  216,  217,  218,  219,  220,  221,  222,  223,  224
  225,  226,  227,  228,  229,  230,  231,  232,  233,  234,  235,  236,  237,  238,  239,  240
  241,  242,  243,  244,  245,  246,  247,  248,  249,  250,  251,  252,  253,  254,  255,  256
  257,  258,  259,  260,  261,  262,  263,  264,  265,  266,  267,  268,  269,  270,  271,  272
  273,  274,  275,  276,  277,  278,  279,  280,  281,  282,  283,  284,  285,  286,  287,  288
  289,  290,  291,  292,  293,  294,  295,  296,  297,  298,  299,  300,  301,  302,  303,  304
  305,  306,  307,  308,  309,  310,  311,  312,  313,  314,  315,  316,  317,  318,  319,  320
  321,  322,  323,  324,  325,  326,  327,  328,  329,  330,  331,  332,  333,  334,  335,  336
  337,  338,  339,  340,  341,  342,  343,  344,  345,  346,  347,  348,  349,  350,  351,  352
  353,  354,  355,  356,  357,  358,  359,  360,  361,  362,  363,  364,  365,  366,  367,  368
  369,  370,  371,  372,  373,  374,  375,  376,  377,  378,  379,  380,  499,  500,  501,  502
  503,  504,  505,  506,  507,  508,  509,  510,  511,  512,  513,  514,  515,  516,  517,  518
  519,  520,  521,  522,  523,  524,  525,  526,  527,  528,  529,  530,  531,  532,  533,  534
  535,  536,  537,  538,  539,  540,  541,  542,  543,  544,  545,  546,  547,  548,  549,  550
** ... 55 like lines cut
*Elset, elset=Set-Matrix, generate
 134,  660,    1
*Nset, nset=Set-X-SYM
  32,  33,  37,  38, 220, 221, 222, 223, 224, 225, 226, 227, 228, 229, 230, 231
 232, 233, 234, 235, 236, 237, 238, 239, 240, 241, 242, 358, 359, 360, 361, 362
 363, 364, 365, 366, 367, 368, 369, 370, 371, 372, 373, 374, 375, 376, 377, 378
 379, 380
*Elset, elset=Set-X-SYM
 156, 160, 163, 167, 174, 191, 192, 193, 194, 196, 198, 199, 200, 201, 202, 204
 254, 257, 270, 275, 281, 302, 304, 306
*Nset, nset=Set-Y-SYM
  31,  32,  36,  37, 197, 198, 199, 200, 201, 202, 203, 204, 205, 206, 207, 208
 209, 210, 211, 212, 213, 214, 215, 216, 217, 218, 219, 312, 313, 314, 315, 316
 317, 318, 319, 320, 321, 322, 323, 324, 325, 326, 327, 328, 329, 330, 331, 332
 333, 334
*Elset, elset=Set-Y-SYM
 166, 175, 177, 182, 187, 188, 190, 193, 239, 242, 244, 245, 248, 252, 260, 273
 274, 284, 286, 288, 290, 295, 336, 343
*Nset, nset=Set-Z-SYM
    1,    2,    3,    4,    9,   10,   11,   12,   19,   20,   21,   22,   27,   28,   29,   35
   36,   37,   38,   39,   40,   41,   42,   43,   44,   45,   46,   47,   48,   49,   50,   51
   52,   53,   54,   55,   56,   57,   58,   79,   80,   81,   82,   83,   84,   85,   86,   87
   88,   89,   90,   91,   92,   93,   94,   95,   96,  123,  124,  125,  126,  127,  128,  129
  130,  131,  132,  133,  134,  135,  136,  137,  138,  139,  140,  159,  160,  161,  162,  163
  164,  165,  166,  167,  168,  169,  170,  171,  172,  179,  180,  181,  182,  183,  184,  185
  186,  187,  289,  290,  291,  292,  293,  294,  295,  296,  297,  298,  299,  300,  301,  302
  303,  304,  305,  306,  307,  308,  309,  310,  311,  312,  313,  314,  315,  316,  317,  318
  319,  320,  321,  322,  323,  324,  325,  326,  327,  328,  329,  330,  331,  332,  333,  334
  335,  336,  337,  338,  339,  340,  341,  342,  343,  344,  345,  346,  347,  348,  349,  350
  351,  352,  353,  354,  355,  356,  357,  358,  359,  360,  361,  362,  363,  364,  365,  366
  367,  368,  369,  370,  371,  372,  373,  374,  375,  376,  377,  378,  379,  380,  381,  382
  383,  384,  385,  386,  387,  388,  389,  390,  391,  392,  393,  394,  395,  396,  413,  414
  415,  416,  417,  418,  419,  420,  429,  430,  431,  432,  433,  434,  435,  436,  445,  446
  447,  448,  449,  450,  451,  452,  461,  462,  463,  464,  465,  466,  467,  468,  469,  470
  471,  472,  473,  474,  475,  476,  477,  478,  479,  959,  960,  961,  962,  963,  964,  965
  966,  967,  968,  969,  970,  971,  972,  973,  974,  975,  976,  977,  978,  979,  980,  981
  982,  983,  984,  985,  986,  987,  988,  989,  990,  991,  992,  993,  994,  995,  996,  997
  998,  999, 1000, 1001, 1002, 1003, 1004, 1005, 1006, 1007, 1008, 1009, 1010, 1011, 1012, 1013
 1014, 1015, 1016, 1017, 1018, 1019, 1020, 1021, 1022, 1023, 1024, 1025, 1026, 1027, 1028, 1029
** ... 25 like lines cut
*Elset, elset=Set-Z-SYM, generate
   1,  660,    1
*Nset, nset=Set-X-RF
  31,  34,  35,  36, 266, 267, 268, 269, 270, 271, 272, 273, 274, 275, 276, 277
 278, 279, 280, 281, 282, 283, 284, 285, 286, 287, 288, 289, 290, 291, 292, 293
 294, 295, 296, 297, 298, 299, 300, 301, 302, 303, 304, 305, 306, 307, 308, 309
 310, 311
*Elset, elset=Set-X-RF
 135, 137, 138, 140, 143, 144, 146, 169, 228, 229, 230, 233, 234, 235, 236, 237
 245, 267, 327, 330, 333, 339, 340, 342
*Nset, nset=Set-Y-RF
  33,  34,  35,  38, 243, 244, 245, 246, 247, 248, 249, 250, 251, 252, 253, 254
 255, 256, 257, 258, 259, 260, 261, 262, 263, 264, 265, 335, 336, 337, 338, 339
 340, 341, 342, 343, 344, 345, 346, 347, 348, 349, 350, 351, 352, 353, 354, 355
 356, 357
*Elset, elset=Set-Y-RF
 146, 150, 152, 154, 172, 173, 174, 208, 210, 215, 216, 218, 220, 223, 225, 227
 265, 266, 310, 312, 315, 319, 322, 324
** Section: Section-1
*Solid Section, elset=Set-FCC, material=Material-1
,
** Section: Section-1
*Solid Section, elset=Set-BCC, material=Material-1
,
** Section: Section-2
*Solid Section, elset=Set-Matrix, material=Material-Matrix
,
*End Part
**  
**
** ASSEMBLY
**
*Assembly, name=Assembly
**  
*Instance, name=Part-1-1, part=Part-1
*End Instance
**  
*End Assembly
** 
** MATERIALS
** 
*Material, name=Material-1
*USER MATERIAL, CONSTANTS=22
243.5E9,170.3E9,124.2E9,0.001,0.001,550.E6,1.0E9,600.E6,
0.7,1.4,285.3E9,262.1E9,131.8E9,0.001,0.001,475.E6,
4.E9,750.E6,0.7,1.4,1000,1000
*DEPVAR
18
*DENSITY
1.E2
*Material, name=Material-Matrix
*Density
100.,
*Elastic
 1.7e+11, 0.3
*Plastic
 1.2e+09,   0.
 1.6e+09, 0.14
** ----------------------------------------------------------------
** 
** STEP: Step-1
** 
*Step, name=Step-1, nlgeom=YES
*Dynamic, Explicit
, 20.
*Bulk Viscosity
0.06, 1.2
** 
** BOUNDARY CONDITIONS
** 
** Name: BC-1 Type: Symmetry/Antisymmetry/Encastre
*Boundary
Part-1-1.Set-X-SYM, XSYMM
** Name: BC-2 Type: Velocity/Angular velocity
*Boundary, type=VELOCITY
Part-1-1.Set-X-RF, 1, 1, 0.12
** 
** OUTPUT REQUESTS
** 
*Restart, write, number interval=1, time marks=NO
** 
** FIELD OUTPUT: F-Output-1
** 
*Output, field, variable=PRESELECT
** 
** HISTORY OUTPUT: H-Output-1
** 
*Output, history, variable=PRESELECT
*Node Output, nset=Part-1-1.Set-X-RF
RF1, U1
*Element Output, elset=Part-1-1.Set-FCC
LE, S
*Element Output, elset=Part-1-1.Set-BCC
LE, S
*End Step
