*Heading
** Job name: J_8000 Model name: Model-1
** Generated by: Abaqus/CAE 6.13-1
*Preprint, echo=NO, model=NO, history=NO, contact=NO
**
** PARTS
**
*Part, name=Part-1
*Node
      1,          20.,          20.,          20.
      2,          20.,          19.,          20.
      3,          20.,          18.,          20.
      4,          20.,          17.,          20.
      5,          20.,          16.,          20.
      6,          20.,          15.,          20.
      7,          20.,          14.,          20.
      8,          20.,          13.,          20.
      9,          20.,          12.,          20.
     10,          20.,          11.,          20.
     11,          20.,          10.,          20.
     12,          20.,           9.,          20.
     13,          20.,           8.,          20.
     14,          20.,           7.,          20.
     15,          20.,           6.,          20.
     16,          20.,           5.,          20.
     17,          20.,           4.,          20.
     18,          20.,           3.,          20.
     19,          20.,           2.,          20.
     20,          20.,           1.,          20.
** ... 9241 like lines cut
*Element, type=C3D8R
   1,  442,  443,  464,  463,    1,    2,   23,   22
   2,  443,  444,  465,  464,    2,    3,   24,   23
   3,  444,  445,  466,  465,    3,    4,   25,   24
   4,  445,  446,  467,  466,    4,    5,   26,   25
   5,  446,  447,  468,  467,    5,    6,   27,   26
   6,  447,  448,  469,  468,    6,    7,   28,   27
   7,  448,  449,  470,  469,    7,    8,   29,   28
   8,  449,  450,  471,  470,    8,    9,   30,   29
   9,  450,  451,  472,  471,    9,   10,   31,   30
  10,  451,  452,  473,  472,   10,   11,   32,   31
  11,  452,  453,  474,  473,   11,   12,   33,   32
  12,  453,  454,  475,  474,   12,   13,   34,   33
  13,  454,  455,  476,  475,   13,   14,   35,   34
  14,  455,  456,  477,  476,   14,   15,   36,   35
  15,  456,  457,  478,  477,   15,   16,   37,   36
  16,  457,  458,  479,  478,   16,   17,   38,   37
  17,  458,  459,  480,  479,   17,   18,   39,   38
  18,  459,  460,  481,  480,   18,   19,   40,   39
  19,  460,  461,  482,  481,   19,   20,   41,   40
  20,  461,  462,  483,  482,   20,   21,   42,   41
** ... 7980 like lines cut
*Elset, elset=_PickedSet, internal, generate
	1, 8000,	 1
*Solid Section, elset=_PickedSet, material=Material-1
1.,
*End Part
**  
**
** ASSEMBLY
**
*Assembly, name=Assembly
**  
*Instance, name=Part-1-1, part=Part-1
*End Instance
**
*Nset, nset=Set-Y-Loading, instance=Part-1-1,generate
    1,  9241,    21
*Elset, elset=Set-Y-Loading, instance=Part-1-1,generate
    1,  7981,    20
*Nset, nset=Set-Y-RF, instance=Part-1-1,generate
   21,  9261,    21
*Elset, elset=Set-Y-RF, instance=Part-1-1,generate
   20,  8000,    20
*Nset, nset=Set-1, instance=Part-1-1,generate
	1,  9261,	 1
*Elset, elset=Set-1, instance=Part-1-1,generate
	1,	8000,	 1
*Elset, elset=FCC-LD200, instance=Part-1-1
     72,    247,    332,    387,
    479,    542,    547,    794,
   1180,   1246,   1294,   1446,
   1568,   1617,   1626,   1630,
   1724,   1727,   1887,   1933,
   1952,   1979,   1985,   2018,
   2096,   2192,   2355,   2466,
   2519,   2805,   2848,   2881,
   2920,   2973,   3034,   3054,
   3088,   3115,   3129,   3533,
   3685,   3841,   3937,   3962,
   3969,   3977,   4100,   4106,
   4268,   4296,   4373,   4379,
   4481,   4488,   4541,   4593,
   4615,   4622,   4635,   4644,
   4688,   4857,   4971,   5043,
   5164,   5203,   5241,   5272,
   5366,   5384,   5391,   5421,
   5466,   5666,   5751,   5767,
   5770,   5781,   5966,   5987,
** ... 5 like lines cut

*Elset, elset=FCC-TD200, instance=Part-1-1
      1,     80,    246,    363,
    387,    571,    610,    794,
    824,    890,   1039,   1180,
   1191,   1246,   1294,   1442,
   1446,   1448,   1568,   1613,
   1679,   1781,   1831,   1887,
   1933,   1958,   2062,   2096,
   2181,   2261,   2444,   2466,
   2519,   2626,   2673,   2813,
   2845,   2881,   3034,   3202,
   3368,   3399,   3474,   3734,
   3755,   3962,   3969,   4039,
   4122,   4258,   4379,   4481,
   4541,   4593,   4615,   4648,
   4712,   5146,   5173,   5187,
   5225,   5366,   5421,   5449,
   5466,   5582,   5666,   5800,
   5886,   5987,   6073,   6136,
   6154,   6286,   6480,   6527,
   6640,   6702,   6706,   6890,
   6900,   7046,   7249,   7525,
   7563,   7718,   7771,   7996,

*Elset, elset=FCC-LD220, instance=Part-1-1
     40,    174,    219,    266,
    355,    363,    388,    404,
    520,    545,    571,    575,
    583,    609,    649,    736,
    742,    883,   1032,   1038,
   1136,   1237,   1287,   1313,
   1357,   1368,   1562,   1591,
   1741,   1886,   1891,   1896,
   1923,   2043,   2071,   2094,
   2134,   2141,   2162,   2165,
   2317,   2348,   2387,   2418,
   2689,   2704,   2707,   2780,
   2804,   2840,   2980,   2994,
   3023,   3041,   3046,   3057,
   3084,   3109,   3113,   3202,
   3243,   3259,   3273,   3358,
   3368,   3375,   3377,   3379,
   3383,   3563,   3592,   3649,
   3680,   3683,   3857,   3943,
   4015,   4024,   4122,   4160,
** ... 17 like lines cut

*Elset, elset=FCC-TD220, instance=Part-1-1
      5,    174,    208,    330,
    336,    366,    388,    457,
    488,    515,    519,    520,
    552,    609,    649,    718,
    742,    759,    768,    798,
    904,    978,   1032,   1053,
   1069,   1182,   1190,   1192,
   1214,   1268,   1475,   1510,
   1562,   1591,   1600,   1623,
   1675,   1709,   1766,   1909,
   1960,   1965,   2033,   2134,
   2210,   2242,   2317,   2380,
   2381,   2420,   2507,   2535,
   2668,   2689,   2804,   2806,
   2842,   3015,   3023,   3061,
   3073,   3090,   3160,   3182,
   3218,   3243,   3273,   3276,
   3362,   3446,   3455,   3563,
   3649,   3834,   3901,   3925,
   3951,   3966,   3991,   4020,
** ... 20 like lines cut

*Elset, elset=FCC-LD111, instance=Part-1-1
     62,    350,    519,    640,
    702,    776,    820,    839,
   1190,   1398,   1441,   1539,
   1597,   1600,   1622,   1641,
   1656,   1659,   1664,   1702,
   1856,   1978,   1990,   2008,
   2040,   2232,   2322,   2384,
   2441,   2540,   2668,   2695,
   3079,   3158,   3218,   3323,
   3735,   3787,   4066,   4121,
   4709,   4795,   4805,   4835,
   4882,   4899,   4905,   4950,
   4966,   4979,   4982,   5064,
   5129,   5167,   5255,   5374,
   5434,   5436,   5445,   5532,
   5741,   5843,   5999,   6204,
   6220,   6274,   6303,   6695,
   6827,   6986,   7060,   7386,
   7470,   7540,   7578,   7597,
   7695,   7837,   7871,   7904,
   7977,
*Elset, elset=FCC-TD111, instance=Part-1-1
    322,    339,    541,    575,
    636,    727,    735,    900,
   1054,   1126,   1240,   1393,
   1420,   1431,   1761,   1865,
   1925,   2042,   2176,   2256,
   2283,   2348,   2368,   2606,
   2883,   2980,   3057,   3084,
   3113,   3234,   3341,   3345,
   3380,   3512,   3584,   3592,
   3614,   3647,   3706,   3943,
   4155,   4171,   4459,   4509,
   4683,   4853,   4873,   4900,
   4913,   4940,   5166,   5330,
   5643,   5711,   5796,   5829,
   5854,   5915,   5963,   6147,
   6221,   6390,   6446,   6618,
   6888,   6914,   6944,   7015,
   7164,   7389,   7391,   7400,
   7409,   7486,   7725,   7829,
   7840,   7862,   7991,
*Elset, elset=FCC-LD311, instance=Part-1-1
      7,     55,    110,    163,
    270,    271,    315,    330,
    336,    449,    528,    573,
    628,    677,    680,    826,
    828,    835,    864,    868,
    896,    918,    969,   1005,
   1107,   1116,   1122,   1142,
   1151,   1214,   1269,   1302,
   1370,   1533,   1602,   1633,
   1703,   1839,   1852,   1853,
   1860,   1867,   1868,   1900,
   1911,   1912,   1937,   1949,
   2009,   2012,   2028,   2064,
   2088,   2107,   2213,   2216,
   2242,   2346,   2367,   2370,
   2380,   2399,   2427,   2496,
   2498,   2531,   2600,   2662,
   2674,   2692,   2709,   2763,
   2799,   2856,   2949,   3011,
   3038,   3051,   3071,   3073,
** ... 37 like lines cut
*Elset, elset=FCC-TD311, instance=Part-1-1
      4,     17,     21,     56,
     92,    110,    141,    153,
    154,    160,    172,    207,
    225,    255,    285,    356,
    361,    391,    427,    450,
    525,    540,    568,    617,
    619,    661,    713,    714,
    741,    746,    747,    772,
    777,    817,    827,    829,
    840,    899,    940,   1070,
   1137,   1142,   1224,   1255,
   1258,   1297,   1360,   1422,
   1472,   1483,   1544,   1556,
   1584,   1666,   1738,   1835,
   1840,   1879,   1922,   1948,
   1956,   1962,   2076,   2102,
   2162,   2165,   2204,   2212,
   2305,   2318,   2327,   2382,
   2394,   2455,   2553,   2602,
   2623,   2672,   2674,   2692,
** ... 35 like lines cut
*Elset, elset=FCC-LD331, instance=Part-1-1
      2,      3,      8,     47,
    173,    238,    299,    308,
    320,    352,    384,    386,
    415,    431,    458,    462,
    477,    620,    633,    636,
    659,    662,    745,    759,
    812,    846,    860,    920,
    954,    976,    983,    997,
   1028,   1155,   1227,   1285,
   1306,   1319,   1336,   1349,
   1388,   1393,   1415,   1417,
   1571,   1603,   1618,   1713,
   1723,   1742,   1751,   1776,
   1778,   1799,   1844,   1864,
   1877,   1921,   1932,   1960,
   2104,   2109,   2122,   2132,
   2163,   2166,   2286,   2321,
   2451,   2556,   2574,   2587,
   2747,   2778,   2806,   2829,
   2909,   2915,   2966,   2996,
** ... 31 like lines cut
*Elset, elset=FCC-TD331, instance=Part-1-1
     62,    107,    150,    171,
    185,    217,    219,    259,
    283,    300,    431,    452,
    477,    483,    532,    566,
    583,    625,    652,    693,
    743,    936,    997,   1077,
   1100,   1131,   1136,   1285,
   1287,   1417,   1450,   1566,
   1652,   1671,   1683,   1694,
   1742,   1769,   1788,   1799,
   1815,   1961,   2030,   2157,
   2163,   2190,   2196,   2259,
   2277,   2285,   2290,   2298,
   2310,   2338,   2379,   2402,
   2465,   2474,   2540,   2652,
   2657,   2681,   2693,   2698,
   2704,   2723,   2784,   2868,
   2876,   2894,   2906,   2915,
   2972,   2984,   2996,   3046,
   3055,   3132,   3149,   3221,
** ... 34 like lines cut
*Elset, elset=BCC-LD200, instance=Part-1-1
    630,    689,    711,    934,
    952,   1128,   1295,   1367,
   1627,   1998,   2066,   2357,
   2429,   2758,   2914,   2955,
   3534,   3720,   3741,   3931,
   4096,   4185,   4196,   4445,
   4802,   4997,   5498,   5522,
   5526,   5938,   6626,   7183,
   7311,   7634,
*Elset, elset=BCC-TD200, instance=Part-1-1
    116,    200,    538,    630,
    689,    711,    996,   1029,
   1128,   1367,   1610,   2234,
   2357,   2461,   2612,   3308,
   3422,   3436,   3718,   3765,
   3952,   4096,   4185,   4245,
   4337,   4918,   4953,   5112,
   5144,   5571,   5938,   6101,
   6157,   6171,   6250,   6518,
   6728,   7219,   7315,   7634,
   7748,   7833,   7861,   7925,

*Elset, elset=BCC-LD110, instance=Part-1-1
     50,     69,    116,    319,
    445,    578,    716,    720,
    722,    751,    758,    773,
    851,    943,    973,   1062,
   1078,   1243,   1904,   1951,
   1976,   2541,   2615,   2703,
   2705,   2717,   2766,   2904,
   2938,   3017,   3031,   3145,
   3179,   3320,   3324,   3500,
   3545,   3553,   3634,   3707,
   3935,   4052,   4391,   4401,
   4472,   4572,   4623,   5023,
   5100,   5144,   5209,   5515,
   5517,   5613,   5682,   5706,
   5833,   5840,   5932,   6140,
   6172,   6243,   6384,   6524,
   6646,   6712,   6751,   6816,
   6841,   6983,   7347,   7497,
   7562,   7613,   7690,   7761,
   7778,   7925,
*Elset, elset=BCC-TD110, instance=Part-1-1
     87,    112,    232,    374,
    445,    584,    664,    751,
    773,    943,   1048,   1059,
   1139,   1271,   1325,   1378,
   1593,   1951,   1973,   2035,
   2433,   2442,   2456,   2708,
   2758,   2760,   3022,   3357,
   3707,   4052,   4054,   4095,
   4310,   4347,   4401,   4592,
   4820,   5023,   5044,   5209,
   5283,   5331,   5417,   5443,
   5632,   5682,   5798,   5932,
   6140,   6252,   6316,   6357,
   6370,   6384,   6489,   6511,
   6585,   6801,   7088,   7204,
   7311,   7516,   7539,   7557,
   7598,
*Elset, elset=BCC-LD211, instance=Part-1-1
     91,    164,    232,    263,
    313,    574,    656,    841,
    850,    852,   1117,   1189,
   1248,   1277,   1296,   1307,
   1384,   1427,   1453,   1484,
   1545,   1583,   1590,   1897,
   2067,   2130,   2149,   2185,
   2254,   2433,   2490,   2646,
   2801,   2934,   3070,   3072,
   3100,   3116,   3187,   3228,
   3232,   3305,   3357,   3516,
   3623,   3729,   3869,   3877,
   3995,   4044,   4190,   4209,
   4312,   4403,   4406,   4417,
   4589,   4597,   4598,   4608,
   4661,   4692,   4745,   4876,
   5134,   5162,   5283,   5293,
   5359,   5362,   5447,   5455,
   5539,   5708,   5803,   5989,
   6028,   6037,   6046,   6092,
** ... 7 like lines cut
*Elset, elset=BCC-TD211, instance=Part-1-1
     22,    187,    240,    312,
    360,    481,    523,    557,
    627,    705,    750,    851,
    854,   1007,   1043,   1195,
   1219,   1273,   1289,   1330,
   1502,   1506,   1564,   1589,
   1615,   1636,   1784,   1786,
   1845,   1846,   1850,   1895,
   1972,   2053,   2098,   2207,
   2369,   2403,   2504,   2555,
   2615,   2649,   2808,   2857,
   2885,   2905,   2978,   2991,
   3028,   3194,   3230,   3244,
   3300,   3338,   3374,   3411,
   3496,   3605,   3606,   3786,
   3848,   3855,   3906,   3934,
   4074,   4219,   4244,   4300,
   4331,   4355,   4391,   4392,
   4420,   4463,   4572,   4809,
   4901,   4999,   5052,   5141,
** ... 6 like lines cut

*Elset, elset=BCC-LD321, instance=Part-1-1
     63,    106,    220,    276,
    296,    317,    347,    360,
    364,    398,    409,    429,
    511,    521,    562,    623,
    658,    683,    806,    859,
    886,    909,    919,    942,
    999,   1007,   1086,   1167,
   1219,   1242,   1247,   1274,
   1312,   1323,   1344,   1351,
   1429,   1443,   1522,   1575,
   1595,   1642,   1662,   1663,
   1740,   1765,   1812,   1813,
   2011,   2014,   2049,   2175,
   2237,   2287,   2342,   2437,
   2523,   2566,   2594,   2609,
   2631,   2645,   2649,   2686,
   2688,   2817,   2825,   2846,
   2905,   2963,   2976,   2983,
   3008,   3028,   3040,   3080,
   3106,   3374,   3419,   3453,
** ... 26 like lines cut
*Elset, elset=BCC-TD321, instance=Part-1-1
    100,    189,    230,    261,
    274,    389,    464,    485,
    491,    597,    618,    673,
    763,    778,    813,    859,
    870,    874,    887,    910,
    964,   1013,   1167,   1203,
   1304,   1317,   1382,   1469,
   1481,   1528,   1565,   1583,
   1601,   1753,   1796,   1824,
   1861,   1927,   2229,   2278,
   2306,   2312,   2426,   2448,
   2478,   2483,   2517,   2569,
   2583,   2631,   2700,   2817,
   2818,   2888,   3006,   3036,
   3066,   3091,   3106,   3111,
   3114,   3116,   3124,   3127,
   3157,   3159,   3167,   3299,
   3504,   3578,   3622,   3633,
   3664,   3719,   3721,   3780,
   3859,   4037,   4055,   4065,
** ... 18 like lines cut
**  
*End Assembly
** 
** MATERIALS
** 
*Material, name=Material-1
** ATTENTION!! Eight paramters per line!
*USER MATERIAL, CONSTANTS=22
243.5E9,170.3E9,124.2E9,0.001,0.001,300.E6,5E9,500.E6,
0.7,1.4,285.3E9,262.1E9,131.8E9,0.001,0.001,600.E6,
10.E9,900.E6,0.1,1.4,1000,1000
*DEPVAR
18
*DENSITY
1.E6
** ----------------------------------------------------------------
** 
** STEP: Step-1
** 
*Step, name=Step-1, nlgeom=YES
*Dynamic, Explicit
, 50.
*Bulk Viscosity
0.06, 1.2
**
** BOUNDARY CONDITIONS
*Boundary, type=VELOCITY
Set-Y-Loading, 2,2, 0.02
*Boundary
Set-Y-RF, 2, 2
** 
** OUTPUT REQUESTS
** 
*Restart, write, number interval=1, time marks=NO
** 
** FIELD OUTPUT: F-Output-1
** 
*Output, field, variable=ALL, number interval=200
** 
** HISTORY OUTPUT: H-Output-1
** 
*Output, history
*Node Output, nset=Set-Y-Loading
RF2, U2
*Element Output, elset=Set-1
SDV11
*End Step
