1

   Abaqus 6.13-1                                  Date 06-Aug-2020   Time 17:15:27
   For use at  under license from Dassault Systemes or its subsidiary.



                         The Abaqus Software is a product of:

                           Dassault Systemes Simulia Corp.
                                 Rising Sun Mills
                                 166 Valley Street
                           Providence, RI 02909-2499, USA
 


                   Available for internal use at . 
                   The Abaqus Online Support System is accessible
                   through the "My Support" section of the SIMULIA
                   Home Page at http://www.simulia.com.

                   Support policies for academic licenses are described
                   on the SIMULIA web site at
                   http://www.3ds.com/products/simulia/academics/
 
                          On machine ME01L4110FAC04 
                          you are authorized to run
                          Abaqus/Explicit until 29-Jun-2021

                          Your site id is: 100000000002077 


 
                    For assistance or any other information you may
                    obtain contact information for your local office
                    from the world wide web at:

                      http://www.3ds.com/products/simulia/locations/

 
                * * * * * * * * * * * * * * * * * * * * * * * * * * * * * * 
                *                                                         * 
                *                   *****************                     * 
                *                   *  N O T I C E  *                     * 
                *                   *****************                     * 
                *                                                         * 
                *                                                         * 
                *                    Abaqus 6.13-1                        * 
                *                                                         * 
                *          BUILD ID: 2013_05_15-19.56.28 126354           * 
                *                                                         * 
                *                                                         * 
                *  Please make sure you are using release 6.13 manuals    * 
                *  plus the notes accompanying this release.              * 
                *                                                         * 
                *                                                         * 
                *                                                         * 
                *                                                         * 
                *                                                         * 
                *   This program may not be used for commercial purposes  * 
                *           without payment of a commercial fee.          * 
                *                                                         * 
                * * * * * * * * * * * * * * * * * * * * * * * * * * * * * * 


 



     PROCESSING PART, INSTANCE, AND ASSEMBLY INFORMATION
   *******************************************************


     END PROCESSING PART, INSTANCE, AND ASSEMBLY INFORMATION
   ***********************************************************




     OPTIONS BEING PROCESSED
   ***************************


  *Heading
  *Node
  *Element, type=C3D8R
  *Elset, elset=ASSEMBLY_PART-1-1__PICKEDSET
  *Nset, nset=ASSEMBLY_SET-1
  *Nset, nset=ASSEMBLY_SET-Y-LOADING
  *Nset, nset=ASSEMBLY_SET-Y-RF
  *Elset, elset=ASSEMBLY_BCC-LD110
  *Elset, elset=ASSEMBLY_BCC-LD200
  *Elset, elset=ASSEMBLY_BCC-LD211
  *Elset, elset=ASSEMBLY_BCC-LD321
  *Elset, elset=ASSEMBLY_BCC-TD110
  *Elset, elset=ASSEMBLY_BCC-TD200
  *Elset, elset=ASSEMBLY_BCC-TD211
  *Elset, elset=ASSEMBLY_BCC-TD321
  *Elset, elset=ASSEMBLY_FCC-LD111
  *Elset, elset=ASSEMBLY_FCC-LD200
  *Elset, elset=ASSEMBLY_FCC-LD220
  *Elset, elset=ASSEMBLY_FCC-LD311
  *Elset, elset=ASSEMBLY_FCC-LD331
  *Elset, elset=ASSEMBLY_FCC-TD111
  *Elset, elset=ASSEMBLY_FCC-TD200
  *Elset, elset=ASSEMBLY_FCC-TD220
  *Elset, elset=ASSEMBLY_FCC-TD311
  *Elset, elset=ASSEMBLY_FCC-TD331
  *Elset, elset=ASSEMBLY_SET-1
  *Elset, elset=ASSEMBLY_SET-Y-LOADING
  *Elset, elset=ASSEMBLY_SET-Y-RF
  *material, name=MATERIAL-1
  *usermaterial, constants=22
  *depvar
  *density
  *solidsection, elset=ASSEMBLY_PART-1-1__PICKEDSET, material=MATERIAL-1
  *solidsection, elset=ASSEMBLY_PART-1-1__PICKEDSET, material=MATERIAL-1
  *solidsection, elset=ASSEMBLY_PART-1-1__PICKEDSET, material=MATERIAL-1
  *elementoutput, elset=ASSEMBLY_SET-1
  *output, field, variable=ALL, numberinterval=200
  *output, history
  *Step, name=Step-1, nlgeom=YES
  *Step, name=Step-1, nlgeom=YES
  *dynamic, explicit
  *boundary, type=VELOCITY
  *boundary
  *output, field, variable=ALL, numberinterval=200
  *output, history
  *nodeoutput, nset=ASSEMBLY_SET-Y-LOADING
  *elementoutput, elset=ASSEMBLY_SET-1
  *endstep
  *Step, name=Step-1, nlgeom=YES
  *dynamic, explicit
  *boundary, type=VELOCITY
  *boundary

 ***WARNING: THE OPTION *BOUNDARY,TYPE=DISPLACEMENT HAS BEEN USED; CHECK STATUS 
             FILE BETWEEN STEPS FOR WARNINGS ON ANY JUMPS PRESCRIBED ACROSS THE 
             STEPS IN DISPLACEMENT VALUES OF TRANSLATIONAL DOF. FOR ROTATIONAL 
             DOF MAKE SURE THAT THERE ARE NO SUCH JUMPS. ALL JUMPS IN 
             DISPLACEMENTS ACROSS STEPS ARE IGNORED
  *endstep



                            P R O B L E M   S I Z E


          NUMBER OF ELEMENTS IS                                  8000
          NUMBER OF NODES IS                                     9261
          NUMBER OF NODES DEFINED BY THE USER                    9261
          TOTAL NUMBER OF VARIABLES IN THE MODEL                27783
          (DEGREES OF FREEDOM PLUS MAX NO. OF ANY LAGRANGE MULTIPLIER
           VARIABLES. INCLUDE *PRINT,SOLVE=YES TO GET THE ACTUAL NUMBER.)



                              END OF USER INPUT PROCESSING



     JOB TIME SUMMARY
       USER TIME (SEC)      =  0.27000    
       SYSTEM TIME (SEC)    =  0.12000    
       TOTAL CPU TIME (SEC) =  0.39000    
       WALLCLOCK TIME (SEC) =          1
