*Heading
** Job name: Job-inclusion Model name: Model-1
** Generated by: Abaqus/CAE 2021
*Preprint, echo=NO, model=NO, history=NO, contact=NO
**
** PARTS
**
*Part, name=Part-1
*Node
      1,   16.5880966,   24.9967022,           1.
      2,  -16.5880966,   24.9967022,           1.
      3,  -25.9828663,   14.9963541,           1.
      4,   25.9828663,   14.9963541,           1.
      5,   -16.575531,   25.0050354,           0.
      6,   -25.978056,   15.0046873,           0.
      7,    25.978056,   15.0046873,           0.
      8,    16.575531,   25.0050354,           0.
      9,   28.2856216,   9.99618053,           1.
     10,  -28.2856216,   9.99618053,           1.
     11,         -30., -0.00416666688,           1.
     12,          30., -0.00416666688,           1.
     13,  -28.2826748,   10.0045137,           0.
     14,         -30., 0.00416666688,           0.
     15,          30., 0.00416666688,           0.
     16,   28.2826748,   10.0045137,           0.
     17,   29.5810738,  -4.99600697,           0.
     18,  -29.5810738,  -4.99600697,           0.
     19,   29.5796642,  -5.00434017,           1.
     20,  -29.5796642,  -5.00434017,           1.
** ... 3132 like lines cut
*Element, type=C3D8R
  1,    8,  137,  869,  173,    1,   39,  695,  108
  2,  137,  136,  870,  869,   39,   40,  696,  695
  3,  136,  135,  871,  870,   40,   41,  697,  696
  4,  135,  134,  872,  871,   41,   42,  698,  697
  5,  134,  133,  873,  872,   42,   43,  699,  698
  6,  133,  132,  874,  873,   43,   44,  700,  699
  7,  132,  131,  875,  874,   44,   45,  701,  700
  8,  131,  130,  876,  875,   45,   46,  702,  701
  9,  130,  129,  877,  876,   46,   47,  703,  702
 10,  129,  128,  878,  877,   47,   48,  704,  703
 11,  128,  127,  879,  878,   48,   49,  705,  704
 12,  127,  126,  880,  879,   49,   50,  706,  705
 13,  126,  125,  881,  880,   50,   51,  707,  706
 14,  125,  124,  882,  881,   51,   52,  708,  707
 15,  124,  123,  883,  882,   52,   53,  709,  708
 16,  123,  122,  884,  883,   53,   54,  710,  709
 17,  122,  121,  885,  884,   54,   55,  711,  710
 18,  121,  120,  886,  885,   55,   56,  712,  711
 19,  120,  119,  887,  886,   56,   57,  713,  712
 20,  119,  118,  888,  887,   57,   58,  714,  713
** ... 1531 like lines cut
*Nset, nset=Set-FCC
    1,    2,    3,    4,    5,    6,    7,    8,    9,   10,   11,   12,   13,   14,   15,   16
   17,   18,   19,   20,   21,   22,   23,   24,   25,   26,   27,   28,   29,   30,   39,   40
   41,   42,   43,   44,   45,   46,   47,   48,   49,   50,   51,   52,   53,   54,   55,   56
   57,   58,   59,   60,   61,   62,   63,   64,   65,   66,   67,   68,   69,   70,   71,   72
   73,   74,   75,   76,   77,   78,   79,   80,   81,   82,   83,   84,   85,   86,   87,   88
   89,   90,   91,   92,   93,   94,   95,   96,   97,   98,   99,  100,  101,  102,  103,  104
  105,  106,  107,  108,  109,  110,  111,  112,  113,  114,  115,  116,  117,  118,  119,  120
  121,  122,  123,  124,  125,  126,  127,  128,  129,  130,  131,  132,  133,  134,  135,  136
  137,  138,  139,  140,  141,  142,  143,  144,  145,  146,  147,  148,  149,  150,  151,  152
  153,  154,  155,  156,  157,  158,  159,  160,  161,  162,  163,  164,  165,  166,  167,  168
  169,  170,  171,  172,  173,  174,  175,  176,  177,  178,  179,  180,  181,  182,  183,  184
  185,  186,  187,  188,  189,  190,  191,  192,  193,  194,  195,  196,  197,  198,  199,  200
  201,  202,  203,  204,  205,  206,  207,  208,  209,  210,  211,  212,  213,  214,  215,  216
  217,  218,  219,  220,  221,  222,  223,  224,  225,  226,  227,  228,  229,  230,  231,  232
  233,  234,  235,  236,  237,  238,  239,  240,  241,  242,  243,  244,  245,  246,  247,  248
  249,  250,  251,  252,  253,  254,  255,  256,  257,  258,  259,  260,  261,  262,  263,  264
  265,  266,  267,  268,  269,  270,  271,  272,  273,  274,  275,  276,  277,  278,  279,  280
  281,  282,  283,  284,  285,  286,  287,  288,  289,  290,  291,  292,  293,  294,  295,  296
  297,  298,  299,  300,  301,  302,  303,  304,  305,  306,  307,  308,  309,  310,  321,  322
  323,  324,  325,  326,  327,  328,  329,  330,  331,  332,  333,  334,  335,  336,  337,  338
** ... 78 like lines cut
*Elset, elset=Set-FCC
   1,   2,   3,   4,   5,   6,   7,   8,   9,  10,  11,  12,  13,  14,  15,  16
  17,  18,  19,  20,  21,  22,  23,  24,  25,  26,  27,  28,  29,  30,  31,  32
  33,  34,  35,  36,  37,  38,  39,  40,  41,  42,  43,  44,  45,  46,  47,  48
  49,  50,  51,  52,  53,  54,  55,  56,  57,  58,  59,  60,  61,  62,  63,  64
  65,  66,  67,  68,  69,  70,  71,  72,  73,  74,  75,  76,  77,  78,  79,  80
  81,  82,  83,  84,  85,  86,  87,  88,  89,  90,  91,  92,  93,  94,  95,  96
  97,  98,  99, 100, 101, 102, 103, 104, 105, 106, 107, 108, 109, 110, 111, 112
 113, 114, 115, 116, 117, 118, 119, 120, 121, 122, 123, 124, 125, 126, 127, 128
 129, 130, 131, 132, 133, 134, 135, 136, 137, 138, 139, 140, 141, 142, 143, 144
 145, 146, 147, 148, 149, 150, 151, 152, 153, 154, 155, 156, 157, 158, 159, 160
 161, 162, 163, 164, 165, 166, 167, 168, 169, 170, 171, 172, 173, 174, 175, 176
 177, 178, 179, 180, 181, 182, 183, 184, 185, 186, 187, 188, 189, 190, 191, 192
 193, 194, 195, 196, 197, 198, 199, 200, 201, 202, 203, 204, 205, 206, 207, 208
 209, 210, 211, 212, 213, 214, 215, 216, 217, 218, 219, 220, 221, 222, 223, 224
 225, 226, 227, 228, 229, 230, 231, 232, 233, 234, 235, 236, 237, 238, 239, 240
 241, 242, 243, 244, 245, 246, 247, 248, 249, 250, 251, 252, 253, 254, 255, 256
 257, 258, 259, 260, 261, 262, 263, 264, 265, 266, 267, 268, 269, 270, 271, 272
 273, 274, 275, 276, 277, 278, 279, 280, 281, 282, 283, 284, 285, 286, 287, 288
 289, 290, 291, 292, 293, 294, 295, 296, 297, 298, 299, 300, 301, 302, 303, 304
 305, 306, 307, 308, 309, 310, 311, 312, 313, 314, 315, 316, 317, 318, 319, 320
** ... 21 like lines cut
*Nset, nset=Set-BCC
    1,    2,    3,    4,    5,    6,    7,    8,    9,   10,   11,   12,   13,   14,   15,   16
   17,   18,   19,   20,   21,   22,   23,   24,   25,   26,   27,   28,   39,   40,   41,   42
   43,   44,   45,   46,   47,   48,   49,   50,   51,   52,   53,   54,   55,   56,   57,   58
   59,   60,   61,   62,   63,   64,   65,   66,   67,   74,   75,   76,   77,   78,   79,   80
   81,   82,   83,   84,   85,   86,   87,   88,   89,   90,   91,   92,   93,   94,   95,   96
   97,   98,   99,  100,  101,  102,  109,  110,  111,  112,  113,  114,  115,  116,  117,  118
  119,  120,  121,  122,  123,  124,  125,  126,  127,  128,  129,  130,  131,  132,  133,  134
  135,  136,  137,  144,  145,  146,  147,  148,  149,  150,  151,  152,  153,  154,  155,  156
  157,  158,  159,  160,  161,  162,  163,  164,  165,  166,  167,  168,  169,  170,  171,  172
  179,  180,  181,  182,  183,  184,  185,  186,  187,  188,  189,  190,  191,  192,  193,  194
  195,  196,  197,  198,  199,  200,  201,  202,  203,  204,  205,  206,  207,  212,  213,  214
  215,  216,  217,  218,  219,  220,  221,  222,  223,  224,  225,  226,  227,  228,  229,  230
  231,  232,  233,  234,  235,  236,  237,  238,  239,  240,  245,  246,  247,  248,  249,  250
  251,  252,  253,  254,  255,  256,  257,  258,  259,  260,  261,  262,  263,  264,  265,  266
  267,  268,  269,  270,  271,  272,  273,  278,  279,  280,  281,  282,  283,  284,  285,  286
  287,  288,  289,  290,  291,  292,  293,  294,  295,  296,  297,  298,  299,  300,  301,  302
  303,  304,  305,  306,  311,  312,  313,  314,  315,  316,  317,  318,  319,  320,  321,  322
  323,  324,  325,  326,  327,  328,  329,  330,  331,  332,  333,  334,  335,  336,  337,  338
  339,  340,  341,  342,  343,  344,  345,  346,  347,  348,  349,  350,  351,  352,  353,  354
  355,  356,  357,  358,  359,  360,  361,  362,  363,  364,  365,  366,  367,  368,  369,  370
** ... 40 like lines cut
*Elset, elset=Set-BCC
 361, 362, 363, 364, 365, 366, 367, 368, 369, 370, 371, 372, 373, 374, 375, 376
 377, 378, 379, 380, 381, 382, 383, 384, 385, 386, 387, 388, 389, 390, 391, 392
 393, 394, 395, 396, 397, 398, 399, 400, 401, 402, 403, 404, 405, 406, 407, 408
 409, 410, 411, 412, 413, 414, 415, 416, 417, 418, 419, 420, 421, 422, 423, 424
 425, 426, 427, 428, 429, 430, 431, 432, 433, 434, 435, 436, 437, 438, 439, 440
 441, 442, 443, 444, 445, 446, 447, 448, 449, 450, 451, 452, 453, 454, 455, 456
 457, 458, 459, 460, 461, 462, 463, 464, 465, 466, 467, 468, 469, 470, 471, 472
 473, 474, 475, 476, 477, 478, 479, 480, 481, 482, 483, 484, 485, 486, 487, 488
 489, 490, 491, 492, 493, 494, 495, 496, 497, 498, 499, 500, 501, 502, 503, 504
 505, 506, 507, 508, 509, 510, 511, 512, 513, 514, 515, 516, 517, 518, 519, 520
 521, 522, 523, 524, 525, 526, 527, 528, 529, 530, 531, 532, 533, 534, 535, 536
 537, 538, 539, 540, 691, 692, 693, 694, 695, 696, 697, 698, 699, 700, 701, 702
 703, 704, 705, 706, 707, 708, 709, 710, 711, 712, 713, 714, 715, 716, 717, 718
 719, 720, 721, 722, 723, 724, 725, 726, 727, 728, 729, 730, 731, 732, 733, 734
 735, 736, 737, 738, 739, 740, 741, 742, 743, 744, 745, 746, 747, 748, 749, 750
 751, 752, 753, 754, 755, 756, 757, 758, 759, 760, 761, 762, 763, 764, 765, 766
 767, 768, 769, 770, 771, 772, 773, 774, 775, 776, 777, 778, 779, 780, 781, 782
 783, 784, 785, 786, 787, 788, 789, 790, 791, 792, 793, 794, 795, 796, 797, 798
 799, 800, 801, 802, 803, 804, 805, 806, 807, 808, 809, 810, 811, 812, 813, 814
 815, 816, 817, 818, 819, 820, 821, 822, 823, 824, 825, 826, 827, 828, 829, 830
 831, 832, 833, 834, 835, 836, 837, 838, 839, 840, 841, 842, 843, 844, 845, 846
 847, 848, 849, 850, 851, 852, 853, 854, 855, 856
*Nset, nset=Set-Matrix
    1,    2,    3,    4,    5,    6,    7,    8,    9,   10,   11,   12,   13,   14,   15,   16
   17,   18,   19,   20,   21,   22,   23,   24,   25,   26,   27,   28,   29,   30,   31,   32
   33,   34,   35,   36,   37,   38,   68,   69,   70,   71,   72,   73,  103,  104,  105,  106
  107,  108,  138,  139,  140,  141,  142,  143,  173,  174,  175,  176,  177,  178,  208,  209
  210,  211,  241,  242,  243,  244,  274,  275,  276,  277,  307,  308,  309,  310,  311,  312
  313,  314,  315,  316,  317,  318,  319,  320,  350,  351,  352,  353,  383,  384,  385,  386
  387,  388,  418,  419,  420,  421,  422,  423,  424,  425,  455,  456,  457,  458,  459,  460
  490,  491,  492,  493,  523,  524,  525,  526,  527,  528,  529,  530,  531,  532,  533,  534
  535,  536,  537,  538,  539,  540,  541,  542,  543,  544,  545,  546,  547,  548,  549,  550
  551,  552,  553,  554,  555,  556,  557,  558,  559,  560,  561,  562,  563,  564,  565,  566
  567,  568,  569,  570,  571,  572,  573,  574,  575,  576,  577,  578,  579,  580,  581,  582
  583,  584,  585,  586,  587,  588,  589,  590,  591,  592,  593,  594,  595,  596,  597,  598
  599,  600,  601,  602,  603,  604,  605,  606,  607,  608,  609,  610,  611,  612,  613,  614
  615,  616,  617,  618,  619,  620,  621,  622,  623,  624,  625,  626,  627,  628,  629,  630
  631,  632,  633,  634,  635,  636,  637,  638,  639,  640,  641,  642,  643,  644,  645,  646
  647,  648,  649,  650,  651,  652,  653,  654,  655,  656,  657,  658,  659,  660,  661,  662
  663,  664,  665,  666,  667,  668,  669,  670,  671,  672,  673,  674,  675,  676,  677,  678
  679,  680,  681,  682,  683,  684,  685,  686,  687,  688,  689,  690,  691,  692,  693,  694
 2175, 2176, 2177, 2178, 2179, 2180, 2181, 2182, 2183, 2184, 2185, 2186, 2187, 2188, 2189, 2190
 2191, 2192, 2193, 2194, 2195, 2196, 2197, 2198, 2199, 2200, 2201, 2202, 2203, 2204, 2205, 2206
** ... 60 like lines cut
*Elset, elset=Set-Matrix, generate
  991,  1551,     1
*Nset, nset=Set-X-SYM
  32,  33,  37,  38, 618, 619, 620, 621, 622, 623, 624, 625, 626, 627, 628, 684
 685, 686, 687, 688, 689, 690, 691, 692, 693, 694
*Elset, elset=Set-X-SYM
 1031, 1090, 1097, 1460, 1480, 1490, 1497, 1500, 1515, 1517, 1522, 1530
*Nset, nset=Set-Y-SYM
  31,  32,  36,  37, 607, 608, 609, 610, 611, 612, 613, 614, 615, 616, 617, 662
 663, 664, 665, 666, 667, 668, 669, 670, 671, 672
*Elset, elset=Set-Y-SYM
 1090, 1115, 1116, 1401, 1425, 1426, 1451, 1494, 1501, 1524, 1529, 1531
*Nset, nset=Set-Z-SYM
    1,    2,    3,    4,    9,   10,   11,   12,   19,   20,   21,   22,   27,   28,   29,   35
   36,   37,   38,   39,   40,   41,   42,   43,   44,   45,   46,   47,   48,   49,   50,   51
   52,   53,   54,   55,   56,   57,   58,   59,   60,   61,   62,   63,   64,   65,   66,   67
   68,   69,   70,   71,   72,   73,   74,   75,   76,   77,   78,   79,   80,   81,   82,   83
   84,   85,   86,   87,   88,   89,   90,   91,   92,   93,   94,   95,   96,   97,   98,   99
  100,  101,  102,  103,  104,  105,  106,  107,  108,  179,  180,  181,  182,  183,  184,  185
  186,  187,  188,  189,  190,  191,  192,  193,  194,  195,  196,  197,  198,  199,  200,  201
  202,  203,  204,  205,  206,  207,  208,  209,  210,  211,  212,  213,  214,  215,  216,  217
  218,  219,  220,  221,  222,  223,  224,  225,  226,  227,  228,  229,  230,  231,  232,  233
  234,  235,  236,  237,  238,  239,  240,  241,  242,  243,  244,  311,  312,  313,  314,  352
  353,  354,  355,  356,  357,  358,  359,  360,  361,  362,  363,  364,  365,  366,  367,  368
  369,  370,  371,  372,  373,  374,  375,  376,  377,  378,  379,  380,  381,  382,  383,  384
  385,  386,  387,  388,  389,  390,  391,  392,  393,  394,  395,  396,  397,  398,  399,  400
  401,  402,  403,  404,  405,  406,  407,  408,  409,  410,  411,  412,  413,  414,  415,  416
  417,  418,  419,  420,  421,  492,  493,  494,  495,  496,  497,  498,  499,  500,  501,  502
  503,  504,  505,  506,  507,  508,  509,  510,  511,  512,  513,  514,  515,  516,  517,  518
  519,  520,  521,  522,  523,  524,  525,  526,  527,  528,  529,  530,  531,  532,  533,  534
  535,  536,  537,  538,  539,  540,  541,  559,  560,  561,  562,  563,  564,  565,  566,  567
  568,  569,  570,  571,  572,  573,  574,  575,  576,  577,  578,  579,  580,  581,  582,  651
  652,  653,  654,  655,  656,  657,  658,  659,  660,  661,  662,  663,  664,  665,  666,  667
** ... 79 like lines cut
*Elset, elset=Set-Z-SYM, generate
    1,  1551,     1
*Nset, nset=Set-X-RF
  31,  34,  35,  36, 640, 641, 642, 643, 644, 645, 646, 647, 648, 649, 650, 651
 652, 653, 654, 655, 656, 657, 658, 659, 660, 661
*Elset, elset=Set-X-RF
 1049, 1106, 1116, 1445, 1462, 1473, 1482, 1486, 1496, 1499, 1502, 1505
*Nset, nset=Set-Y-RF
  33,  34,  35,  38, 629, 630, 631, 632, 633, 634, 635, 636, 637, 638, 639, 673
 674, 675, 676, 677, 678, 679, 680, 681, 682, 683
*Elset, elset=Set-Y-RF
 1097, 1106, 1356, 1455, 1471, 1484, 1514, 1519, 1523, 1528, 1532, 1534
** Section: Section-1
*Solid Section, elset=Set-FCC, material=Material-1
,
** Section: Section-1
*Solid Section, elset=Set-BCC, material=Material-1
,
** Section: Section-2
*Solid Section, elset=Set-Matrix, material=Material-Matrix
,
*End Part
**  
**
** ASSEMBLY
**
*Assembly, name=Assembly
**  
*Instance, name=Part-1-1, part=Part-1
*End Instance
**  
*End Assembly
** 
** MATERIALS
** 
*Material, name=Material-1
*USER MATERIAL, CONSTANTS=22
243.5E9,170.3E9,124.2E9,0.001,0.001,550.E6,1.0E9,600.E6,
0.7,1.4,285.3E9,262.1E9,131.8E9,0.001,0.001,475.E6,
4.E9,750.E6,0.7,1.4,1000,1000
*DEPVAR
18
*DENSITY
1.E2
*Material, name=Material-Matrix
*Density
1000.,
*Elastic
 1.7e+11, 0.3
*Plastic
 1.2e+09,   0.
 1.6e+09, 0.14
** ----------------------------------------------------------------
** 
** STEP: Step-1
** 
*Step, name=Step-1, nlgeom=YES
*Dynamic, Explicit
, 100.
*Bulk Viscosity
0.06, 1.2
** 
** BOUNDARY CONDITIONS
** 
** Name: BC-1 Type: Symmetry/Antisymmetry/Encastre
*Boundary
Part-1-1.Set-X-SYM, XSYMM
** Name: BC-2 Type: Velocity/Angular velocity
*Boundary, type=VELOCITY
Part-1-1.Set-X-RF, 1, 1, 0.12
** 
** OUTPUT REQUESTS
** 
*Restart, write, number interval=1, time marks=NO
** 
** FIELD OUTPUT: F-Output-1
** 
*Output, field, variable=PRESELECT
** 
** HISTORY OUTPUT: H-Output-1
** 
*Output, history, variable=PRESELECT
*Node Output, nset=Part-1-1.Set-X-RF
RF1, U1
*Element Output, elset=Part-1-1.Set-FCC
LE11, S11
*Element Output, elset=Part-1-1.Set-BCC
LE11, S11
*End Step
