1

   Abaqus 6.13-1                                  Date 15-Dec-2021   Time 17:36:23
   For use at  under license from Dassault Systemes or its subsidiary.



                         The Abaqus Software is a product of:

                           Dassault Systemes Simulia Corp.
                                 Rising Sun Mills
                                 166 Valley Street
                           Providence, RI 02909-2499, USA
 


                   Available for internal use at . 
                   The Abaqus Online Support System is accessible
                   through the "My Support" section of the SIMULIA
                   Home Page at http://www.simulia.com.

                   Support policies for academic licenses are described
                   on the SIMULIA web site at
                   http://www.3ds.com/products/simulia/academics/
 
                          On machine ME01L4110FAC04 
                          you are authorized to run
                          Abaqus/Explicit until 29-Jun-2022

                          Your site id is: 100000000002077 


 
                    For assistance or any other information you may
                    obtain contact information for your local office
                    from the world wide web at:

                      http://www.3ds.com/products/simulia/locations/

 
                * * * * * * * * * * * * * * * * * * * * * * * * * * * * * * 
                *                                                         * 
                *                   *****************                     * 
                *                   *  N O T I C E  *                     * 
                *                   *****************                     * 
                *                                                         * 
                *                                                         * 
                *                    Abaqus 6.13-1                        * 
                *                                                         * 
                *          BUILD ID: 2013_05_15-19.56.28 126354           * 
                *                                                         * 
                *                                                         * 
                *  Please make sure you are using release 6.13 manuals    * 
                *  plus the notes accompanying this release.              * 
                *                                                         * 
                *                                                         * 
                *                                                         * 
                *                                                         * 
                *                                                         * 
                *   This program may not be used for commercial purposes  * 
                *           without payment of a commercial fee.          * 
                *                                                         * 
                * * * * * * * * * * * * * * * * * * * * * * * * * * * * * * 


 



     PROCESSING PART, INSTANCE, AND ASSEMBLY INFORMATION
   *******************************************************


     END PROCESSING PART, INSTANCE, AND ASSEMBLY INFORMATION
   ***********************************************************




     OPTIONS BEING PROCESSED
   ***************************


  *Heading
  *Node
  *Element, type=C3D8R
  *Nset, nset=ASSEMBLY_PART-1-1_SET-BCC
  *Nset, nset=ASSEMBLY_PART-1-1_SET-FCC
  *Nset, nset=ASSEMBLY_PART-1-1_SET-MATRIX
  *Nset, nset=ASSEMBLY_PART-1-1_SET-X-RF
  *Nset, nset=ASSEMBLY_PART-1-1_SET-X-SYM
  *Nset, nset=ASSEMBLY_PART-1-1_SET-Y-RF
  *Nset, nset=ASSEMBLY_PART-1-1_SET-Y-SYM
  *Nset, nset=ASSEMBLY_PART-1-1_SET-Z-SYM
  *Elset, elset=ASSEMBLY_PART-1-1_SET-BCC
  *Elset, elset=ASSEMBLY_PART-1-1_SET-FCC
  *Elset, elset=ASSEMBLY_PART-1-1_SET-MATRIX
  *Elset, elset=ASSEMBLY_PART-1-1_SET-X-RF
  *Elset, elset=ASSEMBLY_PART-1-1_SET-X-SYM
  *Elset, elset=ASSEMBLY_PART-1-1_SET-Y-RF
  *Elset, elset=ASSEMBLY_PART-1-1_SET-Y-SYM
  *Elset, elset=ASSEMBLY_PART-1-1_SET-Z-SYM
  *material, name=MATERIAL-1
  *usermaterial, constants=22
  *depvar
  *density
  *material, name=MATERIAL-MATRIX
  *density
  *elastic
  *plastic
  *solidsection, elset=ASSEMBLY_PART-1-1_SET-FCC, material=MATERIAL-1
  *solidsection, elset=ASSEMBLY_PART-1-1_SET-BCC, material=MATERIAL-1
  *solidsection, elset=ASSEMBLY_PART-1-1_SET-MATRIX, material=MATERIAL-MATRIX
  *solidsection, elset=ASSEMBLY_PART-1-1_SET-FCC, material=MATERIAL-1
  *solidsection, elset=ASSEMBLY_PART-1-1_SET-BCC, material=MATERIAL-1
  *solidsection, elset=ASSEMBLY_PART-1-1_SET-MATRIX, material=MATERIAL-MATRIX
  *solidsection, elset=ASSEMBLY_PART-1-1_SET-FCC, material=MATERIAL-1
  *solidsection, elset=ASSEMBLY_PART-1-1_SET-BCC, material=MATERIAL-1
  *solidsection, elset=ASSEMBLY_PART-1-1_SET-MATRIX, material=MATERIAL-MATRIX
  *elementoutput, elset=ASSEMBLY_PART-1-1_SET-FCC
  *elementoutput, elset=ASSEMBLY_PART-1-1_SET-BCC
  *output, field, variable=PRESELECT
  *output, history, variable=PRESELECT
  *Step, name=Step-1, nlgeom=YES
  *Step, name=Step-1, nlgeom=YES
  *dynamic, explicit
  *boundary
  *boundary, type=VELOCITY
  *output, field, variable=PRESELECT
  *output, history, variable=PRESELECT
  *nodeoutput, nset=ASSEMBLY_PART-1-1_SET-X-RF
  *elementoutput, elset=ASSEMBLY_PART-1-1_SET-FCC
  *elementoutput, elset=ASSEMBLY_PART-1-1_SET-BCC
  *endstep
  *Step, name=Step-1, nlgeom=YES
  *dynamic, explicit
  *boundary

 ***WARNING: THE OPTION *BOUNDARY,TYPE=DISPLACEMENT HAS BEEN USED; CHECK STATUS 
             FILE BETWEEN STEPS FOR WARNINGS ON ANY JUMPS PRESCRIBED ACROSS THE 
             STEPS IN DISPLACEMENT VALUES OF TRANSLATIONAL DOF. FOR ROTATIONAL 
             DOF MAKE SURE THAT THERE ARE NO SUCH JUMPS. ALL JUMPS IN 
             DISPLACEMENTS ACROSS STEPS ARE IGNORED
  *boundary, type=VELOCITY
  *endstep
  
                               E L E M E N T   Q U A L I T Y  C H E C K S        
  
  
 ***NOTES: DISTORTED ISOPARAMETRIC ELEMENTS: ANGLE BETWEEN ISOPARAMETRIC LINES 
           IS LESS THAN 45 DEGREES OR GREATER THAN 135 DEGREES.
  
           TETRAHEDRAL QUALITY MEASURE: VOLUME OF TETRAHEDRON DIVIDED BY THE 
           VOLUME OF EQUILATERAL TETRAHEDRON WITH SAME CIRCUMSPHERE RADIUS; 
           0 FOR DEGENERATE TETRAHEDRON AND 1 FOR EQUILATERIAL TETRAHEDRON. IT 
           IS RECOMMENDED THAT THE TETRAHEDRAL QUALITY MEASURE BE GREATER THAN 
           0.02, THE MIN INTERIOR (DIHEDRAL) ANGLE BE GREATER THAN 10 DEGREES, 
           AND THE MAX INTERIOR (DIHEDRAL) ANGLE BE LESS THAN 160 DEGREES. 
  
           TRIANGULAR QUALITY MEASURE: AREA OF TRIANGLE DIVIDED BY THE AREA OF 
           EQUILATERAL TRIANGLE WITH SAME CIRCUMCIRCLE RADIUS; 0 FOR DEGENERATE 
           TRIANGLE AND 1 FOR EQUILATERAL TRIANGLE. IT IS RECOMMENDED THAT THE
           TRIANGULAR QUALITY MEASURE BE GREATER THAN 0.01, THE MIN INTERIOR 
           ANGLE BE GREATER THAN 10 DEGREES, AND THE MAX INTERIOR ANGLE BE LESS 
           THAN 160 DEGREES. 
  
           NODAL ADJUSTMENTS ARISING FROM CONTACT INTERACTIONS AND/OR TIE 
           CONSTRAINTS CAN CAUSE SEVERE ELEMENT DISTORTION. IT MAY BE NECESSARY 
           TO REMESH IN ORDER TO REDUCE THE AMOUNT OF ADJUSTMENT. 

 ***WARNING: 16 elements are distorted. Either the isoparametric angles are out 
             of the suggested limits or the triangular or tetrahedral quality 
             measure is bad. The elements have been identified in element set 
             WarnElemDistorted.
  
 --------------------------------------------------------------------------------
 Distorted isoparametric elements
  
      Element        Min/max angle   Adjusted nodes 
 ------------------ ---------------- -------------- 
         PART-1-1.1          36.3658       NO       
         PART-1-1.2            38.34       NO       
         PART-1-1.3          40.5026       NO       
         PART-1-1.4          42.8746       NO       
        PART-1-1.27          42.8746       NO       
        PART-1-1.28          40.5026       NO       
        PART-1-1.29            38.34       NO       
        PART-1-1.30          36.3658       NO       
        PART-1-1.31          40.1756       NO       
        PART-1-1.32          42.2042       NO       
        PART-1-1.33          44.4046       NO       
        PART-1-1.58          44.4046       NO       
        PART-1-1.59          42.2042       NO       
        PART-1-1.60          40.1756       NO       
        PART-1-1.61          43.9686       NO       
        PART-1-1.90          43.9686       NO       
  



                            P R O B L E M   S I Z E


          NUMBER OF ELEMENTS IS                                  1551
          NUMBER OF NODES IS                                     3152
          NUMBER OF NODES DEFINED BY THE USER                    3152
          TOTAL NUMBER OF VARIABLES IN THE MODEL                 9456
          (DEGREES OF FREEDOM PLUS MAX NO. OF ANY LAGRANGE MULTIPLIER
           VARIABLES. INCLUDE *PRINT,SOLVE=YES TO GET THE ACTUAL NUMBER.)



                              END OF USER INPUT PROCESSING



     JOB TIME SUMMARY
       USER TIME (SEC)      =  0.25000    
       SYSTEM TIME (SEC)    =   0.0000    
       TOTAL CPU TIME (SEC) =  0.25000    
       WALLCLOCK TIME (SEC) =          0
