*Heading
** Job name: single_SFE_11_slowly_load Model name: test_single_SFE_11_nosyscha_EandS
** Generated by: Abaqus/CAE 2016
*Preprint, echo=NO, model=NO, history=NO, contact=NO
**
** PARTS
**
*Part, name=TESS
*Node
      1,           0.,           0.
      2,  1.27390001e-06,           0.
      3,  2.54780002e-06,           0.
      4,  3.82169992e-06,           0.
      5,   5.0955e-06,           0.
      6,  6.36940013e-06,           0.
      7,  7.6432998e-06,           0.
      8,  8.91719992e-06,           0.
      9,   1.0191e-05,           0.
     10,  1.14650002e-05,           0.
     11,  1.27390003e-05,           0.
     12,  1.40129996e-05,           0.
     13,  1.52869998e-05,           0.
     14,  1.65609999e-05,           0.
     15,  1.78339997e-05,           0.
     16,  1.91079998e-05,           0.
     17,   2.0382e-05,           0.
     18,  2.16560002e-05,           0.
     19,  2.29300003e-05,           0.
     20,  2.42040005e-05,           0.
** ... 14990 like lines cut
*Element, type=CPE4R
    1,     1,     2,   160,   159
    2,     2,     3,   161,   160
    3,     3,     4,   162,   161
    4,     4,     5,   163,   162
    5,     5,     6,   164,   163
    6,     6,     7,   165,   164
    7,     7,     8,   166,   165
    8,     8,     9,   167,   166
    9,     9,    10,   168,   167
   10,    10,    11,   169,   168
   11,    11,    12,   170,   169
   12,    12,    13,   171,   170
   13,    13,    14,   172,   171
   14,    14,    15,   173,   172
   15,    15,    16,   174,   173
   16,    16,    17,   175,   174
   17,    17,    18,   176,   175
   18,    18,    19,   177,   176
   19,    19,    20,   178,   177
   20,    20,    21,   179,   178
** ... 14738 like lines cut
*Elset, elset=FACE1, generate
     1,  14758,      1
*Nset, nset=X0, generate
     1,  14853,    158
*Nset, nset=X1, generate
   158,  15010,    158
*Nset, nset=Y0, generate
   1,  158,    1
*Nset, nset=Y1, generate
 14853,  15010,      1
*Elset, elset=_PICKEDSET7, internal, generate
     1,  14758,      1
** Section: Section-1-_PICKEDSET7
*Solid Section, elset=_PICKEDSET7, material=MATERIAL-1
,
*End Part
**  
**
** ASSEMBLY
**
*Assembly, name=Assembly
**  
*Instance, name=TESS-1, part=TESS
*End Instance
**  
*End Assembly
*Amplitude, name=AMP-1
             0.,              0.,            0.01,           5e-05,            600.,           5e-05
** 
** MATERIALS
** 
*Material, name=MATERIAL-1
*Density
8900.,
*Depvar
    242,
*User Defined Field
*User Material, constants=60
 1.36e+11,    9.5e+10,      7e+10,         0.,         0.,         0.,      0.001,       0.05
         0.,      1000.,        70.,         4.,         1.,        1.4,     60000.,      1000.
      4000.,       100.,    1.4e+08,         1.,       300.,   2.56e-10,      1e+11,       0.09
        1.5,        1.2,         0.,      2e-05,       0.09,         1.,         1.,    1.2e+23
      2e-09,   1.32e+07,         0.,      0.042,         0.,      0.468,      1e-08,         2.
      3e-07,        0.3,      1e-09,       0.01,    2.6e-07,  1.678e-26,         5.,        0.2
       0.25,       0.77,     -10.79,      50.41,       13.9,       0.42,       4.32,      0.331
      1.875,      0.037, 0.00081054,        3.2
** ----------------------------------------------------------------
** 
** STEP: Step-1
** 
*Step, name=Step-1, nlgeom=YES
*Dynamic, Explicit
, 240.
*Bulk Viscosity
0.06, 1.2
** Mass Scaling: Semi-Automatic
**               Whole Model
*Fixed Mass Scaling, factor=1e+12
** 
** BOUNDARY CONDITIONS
** 
** Name: Disp-BC-1 Type: Displacement/Rotation
*Boundary
TESS-1.X0, 1, 1
** Name: Vel-BC-1 Type: Velocity/Angular velocity
*Boundary, amplitude=AMP-1, type=VELOCITY
TESS-1.X1, 1, 1, 0.0002
** 
** OUTPUT REQUESTS
** 
*Restart, write, number interval=1, time marks=NO
** 
** FIELD OUTPUT: F-Output-1
** 
*Output, field, number interval=200
*Node Output
A, RF, U, V
** 
** FIELD OUTPUT: F-Output-2
** 
*Contact Output
CSTRESS, 
** 
** FIELD OUTPUT: F-Output-3
** 
*Element Output, directions=YES
EVF, LE, PE, PEEQ, PEEQVAVG, PEVAVG, S, SDV, SVAVG
** 
** HISTORY OUTPUT: H-Output-1
** 
*Output, history, variable=PRESELECT
*End Step
