*Heading
** Job name: Job-1 Model name: Model-1
** Generated by: Abaqus/CAE 6.14-5
*Preprint, echo=NO, model=NO, history=NO, contact=NO
**
** PARTS
**
*Part, name=Part-1
*Node
      1,           1.,           1.,           1.
      2,           1.,  0.800000012,           1.
      3,           1.,  0.600000024,           1.
      4,           1.,  0.400000006,           1.
      5,           1.,  0.200000003,           1.
      6,           1.,           0.,           1.
      7,           1.,           1.,  0.800000012
      8,           1.,  0.800000012,  0.800000012
      9,           1.,  0.600000024,  0.800000012
     10,           1.,  0.400000006,  0.800000012
     11,           1.,  0.200000003,  0.800000012
     12,           1.,           0.,  0.800000012
     13,           1.,           1.,  0.600000024
     14,           1.,  0.800000012,  0.600000024
     15,           1.,  0.600000024,  0.600000024
     16,           1.,  0.400000006,  0.600000024
     17,           1.,  0.200000003,  0.600000024
     18,           1.,           0.,  0.600000024
     19,           1.,           1.,  0.400000006
     20,           1.,  0.800000012,  0.400000006
** ... 196 like lines cut
*Element, type=C3D8R
  1,  37,  38,  44,  43,   1,   2,   8,   7
  2,  38,  39,  45,  44,   2,   3,   9,   8
  3,  39,  40,  46,  45,   3,   4,  10,   9
  4,  40,  41,  47,  46,   4,   5,  11,  10
  5,  41,  42,  48,  47,   5,   6,  12,  11
  6,  43,  44,  50,  49,   7,   8,  14,  13
  7,  44,  45,  51,  50,   8,   9,  15,  14
  8,  45,  46,  52,  51,   9,  10,  16,  15
  9,  46,  47,  53,  52,  10,  11,  17,  16
 10,  47,  48,  54,  53,  11,  12,  18,  17
 11,  49,  50,  56,  55,  13,  14,  20,  19
 12,  50,  51,  57,  56,  14,  15,  21,  20
 13,  51,  52,  58,  57,  15,  16,  22,  21
 14,  52,  53,  59,  58,  16,  17,  23,  22
 15,  53,  54,  60,  59,  17,  18,  24,  23
 16,  55,  56,  62,  61,  19,  20,  26,  25
 17,  56,  57,  63,  62,  20,  21,  27,  26
 18,  57,  58,  64,  63,  21,  22,  28,  27
 19,  58,  59,  65,  64,  22,  23,  29,  28
 20,  59,  60,  66,  65,  23,  24,  30,  29
** ... 105 like lines cut
*Nset, nset=Set-1, generate
   1,  216,    1
*Elset, elset=Set-1, generate
   1,  125,    1
*Nset, nset=X+, generate
  1,  36,   1
*Elset, elset=X+, generate
  1,  25,   1
*Nset, nset=X-, generate
 181,  216,    1
*Elset, elset=X-, generate
 101,  125,    1
*Nset, nset=Y+, generate
   1,  211,    6
*Elset, elset=Y+, generate
   1,  121,    5
*Nset, nset=Y-, generate
   6,  216,    6
*Elset, elset=Y-, generate
   5,  125,    5
*Nset, nset=Z+
   1,   2,   3,   4,   5,   6,  37,  38,  39,  40,  41,  42,  73,  74,  75,  76
  77,  78, 109, 110, 111, 112, 113, 114, 145, 146, 147, 148, 149, 150, 181, 182
 183, 184, 185, 186
*Elset, elset=Z+
   1,   2,   3,   4,   5,  26,  27,  28,  29,  30,  51,  52,  53,  54,  55,  76
  77,  78,  79,  80, 101, 102, 103, 104, 105
*Nset, nset=Z-
  31,  32,  33,  34,  35,  36,  67,  68,  69,  70,  71,  72, 103, 104, 105, 106
 107, 108, 139, 140, 141, 142, 143, 144, 175, 176, 177, 178, 179, 180, 211, 212
 213, 214, 215, 216
*Elset, elset=Z-
  21,  22,  23,  24,  25,  46,  47,  48,  49,  50,  71,  72,  73,  74,  75,  96
  97,  98,  99, 100, 121, 122, 123, 124, 125
** Section: Section-1
*Solid Section, elset=Set-1, material=Material-1
,
*End Part
**  
**
** ASSEMBLY
**
*Assembly, name=Assembly
**  
*Instance, name=Part-1-1, part=Part-1
*End Instance
**  
*End Assembly
*Amplitude, name=Amp-1, definition=EQUALLY SPACED, fixed interval=5.
0.
0.125
0.250
0.375
0.5
0.625
0.75
0.875
1.0
1.125
1.25
** 
** MATERIALS
** 
*Material, name=Material-1
*User Material, type=MECHANICAL,constants=25
204.6E3, 137.7E3, 126.2E3, 45.0, 90.0, 0.0, 0.001, 0.02, 
110.,320.,447.,0.7,1.0,1.4,11.4E4,5.E-1,
5.E-1, 0.8, 3.0E3, 0.284E-3, 126.E3, 1.7E3, 54,-27,
-27
*Depvar
93
*Density
1.E2
*User Defined Field
*Initial Condition, type=field, variable=1
Part-1-1.Set-1, 1.27e-25
** ----------------------------------------------------------------
** 
** STEP: Step-1
** 
*Step, name=Step-1, nlgeom=YES
*Dynamic, Explicit
, 20
*Bulk Viscosity
0.06, 1.2
** 
** BOUNDARY CONDITIONS
** 
** Name: X--1 Type: Symmetry/Antisymmetry/Encastre
*Boundary
Part-1-1.X-, XSYMM
** Name: Y--1 Type: Symmetry/Antisymmetry/Encastre
*Boundary
Part-1-1.Y-, YSYMM
** Name: Z--1 Type: Symmetry/Antisymmetry/Encastre
*Boundary
Part-1-1.Z-, ZSYMM
** 
** OUTPUT REQUESTS
** 
*Restart, write, number interval=1, time marks=NO
** 
** FIELD OUTPUT: F-Output-1
** 
*Output, field
*Element Output
 E, S, SDV
*Node Output
 U, RF
** 
** HISTORY OUTPUT: H-Output-1
** 
*Output, history
*Node Output, nset=Part-1-1.X+
RF1, U1
*Element Output, elset=Part-1-1.Y+
E22, S22
*Node Output, nset=Part-1-1.Y+
RF2, U2
*Node Output, nset=Part-1-1.Z+
RF3, U3
*End Step
**--------------------------------------------
**
** STEP: Step-2
** 
*Step, name=Step-2, nlgeom=YES
*Dynamic, Explicit
, 50
*Bulk Viscosity
0.06, 1.2
** 
** BOUNDARY CONDITIONS
** 
** Name: X--1 Type: Symmetry/Antisymmetry/Encastre
*Boundary, op=NEW
Part-1-1.X-, XSYMM
** Name: Y+-1 Type: Displacement/Rotation
*Boundary, amplitude=Amp-1, op=NEW
Part-1-1.Y+, 2, 2, 0.04
** Name: Y--1 Type: Symmetry/Antisymmetry/Encastre
*Boundary, op=NEW
Part-1-1.Y-, YSYMM
** Name: Z--1 Type: Symmetry/Antisymmetry/Encastre
*Boundary, op=NEW
Part-1-1.Z-, ZSYMM
** 
** OUTPUT REQUESTS
** 
*Restart, write, number interval=1, time marks=NO
** 
** FIELD OUTPUT: F-Output-2
** 
*Output, field
*Element Output
 E, S, SDV
*Node Output
 U, RF
** 
** HISTORY OUTPUT: H-Output-2
** 
*Output, history
*Node Output, nset=Part-1-1.X+
RF1, U1
*Element Output, elset=Part-1-1.Y+
E22, S22
*Node Output, nset=Part-1-1.Y+
RF2, U2
*Node Output, nset=Part-1-1.Z+
RF3, U3
*End Step
