*Heading
** Job name: j394 Model name: Model-1
** Generated by: Abaqus/CAE 6.13-1
*Preprint, echo=NO, model=NO, history=NO, contact=NO
**
** PARTS
**
*Part, name=Part-2
*Node
      1,           0., 0.0560468435, 0.000199999995
      2,           0., 0.00499999989, 0.000199999995
      3, 0.00499999989,           0., 0.000199999995
      4, 0.0560468435,           0., 0.000199999995
      5,           0., 0.00499999989,           0.
      6, 0.00499999989,           0.,           0.
      7, 0.0560468435,           0.,           0.
      8,           0., 0.0560468435,           0.
      9,  -4.99999762, 0.00499999989, 0.000199999995
     10,           5.,           0., 0.000199999995
     11,           5.,           0.,           0.
     12,  -4.99999762, 0.00499999989,           0.
     13, -0.0558233708, 0.00499999989,           0.
     14, -0.0558233708, 0.00499999989, 0.000199999995
     15,           0., 0.0477798879, 0.000199999995
     16,           0., 0.0406595618, 0.000199999995
     17,           0., 0.0345268324, 0.000199999995
     18,           0., 0.0292447191, 0.000199999995
     19,           0., 0.0246952381, 0.000199999995
     20,           0., 0.0207767729, 0.000199999995
** ... 846 like lines cut
*Element, type=C3D8
  1,   8,  68, 323,  90,   1,  15, 215,  56
  2,  68,  67, 324, 323,  15,  16, 216, 215
  3,  67,  66, 325, 324,  16,  17, 217, 216
  4,  66,  65, 326, 325,  17,  18, 218, 217
  5,  65,  64, 327, 326,  18,  19, 219, 218
  6,  64,  63, 328, 327,  19,  20, 220, 219
  7,  63,  62, 329, 328,  20,  21, 221, 220
  8,  62,  61, 330, 329,  21,  22, 222, 221
  9,  61,  60, 331, 330,  22,  23, 223, 222
 10,  60,  59, 332, 331,  23,  24, 224, 223
 11,  59,  58, 333, 332,  24,  25, 225, 224
 12,  58,  57, 334, 333,  25,  26, 226, 225
 13,  57,   5,  77, 334,  26,   2,  27, 226
 14,  90, 323, 335,  91,  56, 215, 227,  55
 15, 323, 324, 336, 335, 215, 216, 228, 227
 16, 324, 325, 337, 336, 216, 217, 229, 228
 17, 325, 326, 338, 337, 217, 218, 230, 229
 18, 326, 327, 339, 338, 218, 219, 231, 230
 19, 327, 328, 340, 339, 219, 220, 232, 231
 20, 328, 329, 341, 340, 220, 221, 233, 232
** ... 374 like lines cut
*Nset, nset=Set-1, generate
   1,  866,    1
*Elset, elset=Set-1, generate
   1,  394,    1
*Elset, elset=_Surf-1_S2, internal, generate
 131,  150,    1
*Surface, type=ELEMENT, name=Surf-1
_Surf-1_S2, S2
** Section: Section-1-SET-1
*Solid Section, elset=Set-1, material=CP
,
*End Part
**  
**
** ASSEMBLY
**
*Assembly, name=Assembly
**  
*Instance, name=Part-2-1, part=Part-2
*End Instance
**  
*Nset, nset=all, instance=Part-2-1, generate
   1,  866,    1
*Elset, elset=all, instance=Part-2-1, generate
   1,  394,    1
*Nset, nset=back, instance=Part-2-1
   5,   6,   7,   8,  11,  12,  13,  57,  58,  59,  60,  61,  62,  63,  64,  65
  66,  67,  68,  69,  70,  71,  72,  73,  74,  75,  76,  77,  78,  79,  80,  81
  82,  83,  84,  85,  86,  87,  88,  89,  90,  91,  92,  93,  94,  95,  96,  97
  98, 118, 119, 120, 121, 122, 123, 124, 125, 126, 127, 128, 129, 130, 131, 132
 133, 134, 135, 136, 146, 147, 148, 149, 150, 151, 152, 153, 154, 155, 156, 157
 158, 159, 160, 161, 162, 163, 173, 174, 175, 176, 177, 178, 179, 180, 181, 203
 204, 205, 206, 207, 208, 209, 210, 211, 212, 213, 214, 323, 324, 325, 326, 327
 328, 329, 330, 331, 332, 333, 334, 335, 336, 337, 338, 339, 340, 341, 342, 343
 344, 345, 346, 347, 348, 349, 350, 351, 352, 353, 354, 355, 356, 357, 358, 359
 360, 361, 362, 363, 364, 365, 366, 367, 368, 369, 370, 371, 372, 373, 374, 375
 376, 377, 378, 379, 380, 381, 382, 383, 384, 385, 386, 387, 388, 389, 390, 391
 392, 393, 394, 395, 396, 397, 398, 399, 400, 401, 402, 403, 404, 405, 406, 407
 408, 409, 410, 411, 412, 413, 414, 415, 416, 417, 418, 419, 420, 421, 422, 423
 424, 425, 426, 427, 428, 429, 430, 602, 603, 604, 605, 606, 607, 608, 609, 610
 611, 612, 613, 614, 615, 616, 617, 618, 619, 620, 621, 622, 623, 624, 625, 626
 627, 628, 629, 630, 631, 632, 633, 634, 635, 636, 637, 638, 639, 640, 641, 642
 643, 644, 645, 646, 647, 648, 649, 650, 651, 652, 653, 654, 655, 656, 657, 658
 659, 660, 661, 662, 663, 664, 665, 666, 667, 668, 669, 670, 671, 672, 673, 674
 675, 676, 677, 678, 679, 680, 681, 682, 683, 684, 685, 686, 687, 688, 689, 690
 691, 692, 693, 694, 695, 696, 697, 698, 699, 700, 701, 702, 703, 704, 705, 706
** ... 8 like lines cut
*Elset, elset=back, instance=Part-2-1, generate
   1,  394,    1
*Nset, nset=crack, instance=Part-2-1
   2,   5,   9,  12,  13,  14, 155, 156, 157, 158, 159, 160, 161, 162, 163, 164
 165, 166, 167, 168, 169, 170, 171, 172, 191, 192, 193, 194, 195, 196, 197, 198
 199, 200, 201, 202, 203, 204, 205, 206, 207, 208, 209, 210, 211, 212, 213, 214
*Elset, elset=crack, instance=Part-2-1
 131, 151, 171, 191, 211, 231, 251, 271, 291, 311, 334, 336, 338, 339, 340, 347
 349, 355, 365, 368, 369, 370, 371
*Nset, nset=front, instance=Part-2-1
   1,   2,   3,   4,   9,  10,  14,  15,  16,  17,  18,  19,  20,  21,  22,  23
  24,  25,  26,  27,  28,  29,  30,  31,  32,  33,  34,  35,  36,  37,  38,  39
  40,  41,  42,  43,  44,  45,  46,  47,  48,  49,  50,  51,  52,  53,  54,  55
  56,  99, 100, 101, 102, 103, 104, 105, 106, 107, 108, 109, 110, 111, 112, 113
 114, 115, 116, 117, 137, 138, 139, 140, 141, 142, 143, 144, 145, 164, 165, 166
 167, 168, 169, 170, 171, 172, 182, 183, 184, 185, 186, 187, 188, 189, 190, 191
 192, 193, 194, 195, 196, 197, 198, 199, 200, 201, 202, 215, 216, 217, 218, 219
 220, 221, 222, 223, 224, 225, 226, 227, 228, 229, 230, 231, 232, 233, 234, 235
 236, 237, 238, 239, 240, 241, 242, 243, 244, 245, 246, 247, 248, 249, 250, 251
 252, 253, 254, 255, 256, 257, 258, 259, 260, 261, 262, 263, 264, 265, 266, 267
 268, 269, 270, 271, 272, 273, 274, 275, 276, 277, 278, 279, 280, 281, 282, 283
 284, 285, 286, 287, 288, 289, 290, 291, 292, 293, 294, 295, 296, 297, 298, 299
 300, 301, 302, 303, 304, 305, 306, 307, 308, 309, 310, 311, 312, 313, 314, 315
 316, 317, 318, 319, 320, 321, 322, 431, 432, 433, 434, 435, 436, 437, 438, 439
 440, 441, 442, 443, 444, 445, 446, 447, 448, 449, 450, 451, 452, 453, 454, 455
 456, 457, 458, 459, 460, 461, 462, 463, 464, 465, 466, 467, 468, 469, 470, 471
 472, 473, 474, 475, 476, 477, 478, 479, 480, 481, 482, 483, 484, 485, 486, 487
 488, 489, 490, 491, 492, 493, 494, 495, 496, 497, 498, 499, 500, 501, 502, 503
 504, 505, 506, 507, 508, 509, 510, 511, 512, 513, 514, 515, 516, 517, 518, 519
 520, 521, 522, 523, 524, 525, 526, 527, 528, 529, 530, 531, 532, 533, 534, 535
** ... 8 like lines cut
*Elset, elset=front, instance=Part-2-1, generate
   1,  394,    1
*Nset, nset=outer, instance=Part-2-1
   9,  10,  11,  12,  99, 100, 101, 102, 103, 104, 105, 106, 107, 108, 109, 110
 111, 112, 113, 114, 115, 116, 117, 118, 119, 120, 121, 122, 123, 124, 125, 126
 127, 128, 129, 130, 131, 132, 133, 134, 135, 136
*Elset, elset=outer, instance=Part-2-1, generate
 131,  150,    1
*Nset, nset=sym, instance=Part-2-1
   3,   4,   6,   7,  36,  37,  38,  39,  40,  41,  42,  43,  44,  45
  46,  47,  78,  79,  80,  81,  82,  83,  84,  85,  86,  87,  88,  89, 173, 174
 175, 176, 177, 178, 179, 180, 181, 182, 183, 184, 185, 186, 187, 188, 189, 190
*Elset, elset=sym, instance=Part-2-1
 118, 119, 120, 121, 122, 123, 124, 125, 126, 127, 128, 129, 130, 170, 190
 210, 230, 250, 270, 290, 310, 330
*Nset, nset=tip, instance=Part-2-1
  2,  3,  5,  6, 27, 28, 29, 30, 31, 32, 33, 34, 35, 69, 70, 71
 72, 73, 74, 75, 76, 77
*Elset, elset=tip, instance=Part-2-1, generate
  13,  130,   13
*End Assembly
*Amplitude, name=AMP-1, definition=SMOOTH STEP
             0.,              0.,          10000.,           1e-05,         130000.,              1.
** ELEMENT CONTROLS
** 
**Section Controls, name=EC-1, hourglass=ENHANCED
**1., 1., 1.
** 
** MATERIALS
** 
*Material, name=CP
*Density
5.E4,
*Depvar
      83,
*User Material, constants=18, type=MECHANICAL
204.6E3,   137.E3,   126.2E3,  45., 90., 0.0, 1.0,   0.02,
50.0,   1000,   70.,  4.0,  1.0, 1.4, 60.0E3,    1.0E3,
4000.0, 100.0
**Elastic
**207000., 0.3
** 
** BOUNDARY CONDITIONS
** 
** Name: BC-1 Type: Symmetry/Antisymmetry/Encastre
*Boundary
sym, YSYMM
** ----------------------------------------------------------------
** 
** STEP: Step-1
** 
*Step, name=Step-1, nlgeom=YES
*Dynamic, Explicit
, 200.
*Bulk Viscosity
0.06, 1.2
** 
** BOUNDARY CONDITIONS
** 
** Name: BC-2 Type: Velocity/Angular velocity
*Boundary, user, type=VELOCITY
outer, 1, 1
outer, 2, 2
*Boundary
back, 3,3,0.0
*Boundary
front, 3,3,0.0
** 
** OUTPUT REQUESTS
** 
*Restart, write, number interval=1, time marks=NO
** 
** FIELD OUTPUT: F-Output-1
** 
*Output, field, variable=PRESELECT, time interval=5
*Element Output, directions=YES
LE, IE, EE, E, PE, PEEQ, PEMAG, S,EVOL, SDV
** 
** HISTORY OUTPUT: H-Output-1
** 
*Output, history, variable=PRESELECT
*Element Output, elset=sym
LE, S
*End Step
